3mgs_fossil_backup_0/circuit_plusmg_1.dss
clear
set defaultbasefrequency=60
new object=circuit.lehigh basekv=115 pu=1.0001 phases=3 bus1=sourcebus angle=30 mvasc3=20000 mvasc1=21000
edit object=vsource.source basekv=115 bus1=sourcebus.1.2.3 pu=1.00 r1=0 x1=0.0001 r0=0 x0=0.0001
new object=vsource.secondsource basekv=4.16 bus1=680.1.2.3 pu=1.00 r1=0 x1=0.0001 r0=0 x0=0.0001
new object=transformer.sub phases=3 windings=2 xhl=0.008 buses=[sourcebus.1.2.3,650.1.2.3] conns=[delta,wye] kvs=[115,4.16] kvas=[5000,5000] %rs=[0.0005,0.0005]
new object=transformer.reg1 phases=1 bank=reg1 xhl=0.01 kvas=[1666,1666] buses=[650.1,rg60.1] kvs=[2.4,2.4] %loadloss=0.01
new object=regcontrol.reg1 transformer=reg1 winding=2 vreg=121 band=2 ptratio=20 ctprim=700 r=3 x=9
new object=transformer.reg2 phases=1 bank=reg1 xhl=0.01 kvas=[1666,1666] buses=[650.2,rg60.2] kvs=[2.4,2.4] %loadloss=0.01
new object=regcontrol.reg2 transformer=reg2 winding=2 vreg=121 band=2 ptratio=20 ctprim=700 r=3 x=9
new object=transformer.reg3 phases=1 bank=reg1 xhl=0.01 kvas=[1666,1666] buses=[650.3,rg60.3] kvs=[2.4,2.4] %loadloss=0.01
new object=regcontrol.reg3 transformer=reg3 winding=2 vreg=121 band=2 ptratio=20 ctprim=700 r=3 x=9
new object=transformer.xfm1 phases=3 windings=2 xhl=2 buses=[633.1.2.3,634.1.2.3] conns=[wye,wye] kvs=[4.16,0.480] kvas=[500,500] %rs=[0.55,0.55] xht=1 xlt=1
new object=linecode.mtx601 nphases=3 basefreq=60 rmatrix=[0.3465|0.1560,0.3375|0.1580,0.1535,0.3414] xmatrix=[1.0179|0.5017,1.0478|0.4236,0.3849,1.0348] units=mi
new object=linecode.mtx602 nphases=3 basefreq=60 rmatrix=[0.7526|0.1580,0.7475|0.1560,0.1535,0.7436] xmatrix=[1.1814|0.4236,1.1983|0.5017,0.3849,1.2112] units=mi
new object=linecode.mtx603 nphases=2 basefreq=60 rmatrix=[1.3238|0.2066,1.3294] xmatrix=[1.3569|0.4591,1.3471] units=mi
new object=linecode.mtx604 nphases=2 basefreq=60 rmatrix=[1.3238|0.2066,1.3294] xmatrix=[1.3569|0.4591,1.3471] units=mi
new object=linecode.mtx605 nphases=1 basefreq=60 rmatrix=[1.3292] xmatrix=[1.3475] units=mi
new object=linecode.mtx606 nphases=3 units=mi rmatrix=[0.791721|0.318476,0.781649|0.28345,0.318476,0.791721] xmatrix=[0.438352|0.0276838,0.396697|-0.0184204,0.0276838,0.438352] cmatrix=[383.948|0,383.948|0,0,383.948]
new object=linecode.mtx607 nphases=1 basefreq=60 rmatrix=[1.3425] xmatrix=[0.5124] cmatrix=[236] units=mi
new object=loadshape.solar_634_shape npts=8760 interval=1 useactual=yes mult=[0.0,0.0,0.0,0.0,0.0,0.0,0.0,0.0,7.3887022458303795,22.40297309697485,31.62371614307993,97.1769219484819,22.284246038375073,52.07592138118029,77.90669747693669,83.87714035444405,41.908888412572075,2.7783307227778384,0.0,0.0,0.0,0.0,0.0,0.0,0.0,0.0,0.0,0.0,0.0,0.0,0.0,0.0,19.387776014713303,49.23881488681841,68.92223303259946,2.7189671934779525,147.95213550450725,52.90348424508365,192.10684614930568,132.11088954717525,69.74979589650283,5.969855119791517,0.0,0.0,0.0,0.0,0.0,0.0,0.0,0.0,0.0,0.0,0.0,0.0,0.0,0.0,56.863795734416655,132.58344675071098,176.14746089108982,74.65580955062312,132.76094958089482,132.40594392052716,108.17093002327762,93.92544626445248,49.297590658402456,3.9015357177489514,0.0,0.0,0.0,0.0,0.0,0.0,0.0,0.0,0.0,0.0,0.0,0.0,0.0,0.0,86.53674401862213,198.25479185699692,281.4806966622897,333.43847874258614,353.2406239469669,343.901153842262,302.52418616252555,231.88805163053533,126.37672527143576,24.82629815938505,0.0,0.0,0.0,0.0,0.0,0.0,0.0,0.0,0.0,0.0,0.0,0.0,0.0,0.0,94.10294909463629,209.95822349481207,295.431126047763,347.2114052978755,366.1260363513372,353.1812604176671,308.8490469426848,235.43458168791668,127.55929379570676,24.23501389724955,0.0,0.0,0.0,0.0,0.0,0.0,0.0,0.0,0.0,0.0,0.0,0.0,0.0,0.0,74.36016741955538,176.08809736178998,276.0427622753338,247.37487968521557,279.648655862015,288.45620523388425,289.57882247113946,219.71147503146858,118.92924725402136,22.225470266791024,0.0,0.0,0.0,0.0,0.0,0.0,0.0,0.0,0.0,0.0,0.0,0.0,0.0,0.0,75.48337241452647,74.95145168169087,267.8264971656001,307.193921214878,275.09706011054647,263.39362847273134,222.01666079299488,113.4907251093496,59.937180830546396,6.3836365517432,0.0,0.0,0.0,0.0,0.0,0.0,0.0,0.0,0.0,0.0,0.0,0.0,0.0,0.0,76.84285601126545,179.16207021563545,47.288047027943925,62.301730121372564,139.44022826370576,161.546971471897,132.3465803912273,85.76854468401866,45.51478199925328,5.261019314487927,0.0,0.0,0.0,0.0,0.0,0.0,0.0,0.0,0.0,0.0,0.0,0.0,0.0,0.0,78.97053894260792,181.28975314697797,97.1769219484819,206.70733556849845,161.90197713226462,75.60151171541041,96.9400555889982,81.0988096316662,42.027027713456015,19.860920975964863,0.0,0.0,0.0,0.0,0.0,0.0,0.0,0.0,0.0,0.0,0.0,0.0,0.0,0.0,36.5890933265001,90.43827973637106,145.70631327228085,249.73942897604167,144.9369384222457,189.26973965494383,192.22557320790546,155.10397139085399,86.53674401862213,15.191185923612439,0.0,0.0,0.0,0.0,0.0,0.0,0.0,0.0,0.0,0.0,0.0,0.0,0.0,0.0,95.28492986119149,210.90451341731517,295.19425968827926,345.97006100202043,364.6484134537144,353.2406239469669,311.9817955681143,242.8826474630469,144.16873908764225,35.525251860828874,0.0,0.0,0.0,0.0,0.0,0.0,0.0,0.0,0.0,0.0,0.0,0.0,0.0,0.0,88.01436691624502,199.9099175848036,280.5349944975024,340.17712095469693,360.98374409544914,352.9449818158992,312.7505826604336,236.7940652846557,140.79971186044475,34.993331127993265,0.0,0.0,0.0,0.0,0.0,0.0,0.0,0.0,0.0,0.0,0.0,0.0,0.0,0.0,86.1229625866704,197.66350759486141,278.3479480368601,256.77312556150446,285.02781447738687,259.19645062391464,233.89759526099385,186.61013599076577,110.71298214428762,26.77706601825952,0.0,0.0,0.0,0.0,0.0,0.0,0.0,0.0,0.0,0.0,0.0,0.0,0.0,0.0,35.87966976348067,84.9997575916993,154.0401299251827,196.36279976970647,224.9719065882407,206.47046920901482,122.12077165103504,99.42274418070828,56.09500864209733,9.161967274521038,0.0,0.0,0.0,0.0,0.0,0.0,0.0,0.0,0.0,0.0,0.0,0.0,0.0,0.0,18.915218811177574,50.77521355602537,235.8483631198683,294.01227892172403,339.58583669256143,336.8668694990835,300.92842396401875,234.96143672666508,136.9575396719957,34.63832546762563,0.0,0.0,0.0,0.0,0.0,0.0,0.0,0.0,0.0,0.0,0.0,0.0,0.0,0.0,78.32047890888836,181.99917670999736,256.7137620322045,217.11064713887455,255.1773633629976,332.25649797603086,200.79625622029099,91.73839980381015,51.366497818160866,9.28010657540497,0.0,0.0,0.0,0.0,0.0,0.0,0.0,0.0,0.0,0.0,0.0,0.0,0.0,0.0,80.98067033078226,194.7670375711996,284.3183909143674,346.5019817348561,359.68362402800994,350.46229322418907,311.2135962335109,244.89219109350543,143.40053975303874,37.35729266110358,0.0,0.0,0.0,0.0,0.0,0.0,0.0,0.0,0.0,0.0,0.0,0.0,0.0,0.0,88.42814834819667,199.1999062640684,288.2193388744005,341.35910172125205,362.63886982325585,353.5356783203188,317.3015906541863,248.4387211508868,145.94200411633292,38.539861185374576,0.0,0.0,0.0,0.0,0.0,0.0,0.0,0.0,0.0,0.0,0.0,0.0,0.0,0.0,93.27538623073296,209.13066063090864,293.3028553587047,343.4280088810105,376.2342935483615,366.5991813125888,325.8140856527036,249.2075082432061,153.33129411987912,42.027027713456015,0.0,0.0,0.0,0.0,0.0,0.0,0.0,0.0,0.0,0.0,0.0,0.0,0.0,0.0,91.56148473134216,204.2246469767884,285.5597352102225,334.3841809073733,352.6493396848314,342.0685252842715,304.94809898265163,240.45873464292092,145.70572551456502,39.18992121909413,0.0,0.0,0.0,0.0,0.0,0.0,0.0,0.0,0.0,0.0,0.0,0.0,0.0,0.0,23.58495386353,59.050842195059005,89.43321404228388,51.070855687093115,148.07027480539116,39.48556335016188,41.19946484955265,0.5912842621354993,0.0,0.0,0.0,0.0,0.0,0.0,0.0,0.0,0.0,0.0,0.0,0.0,0.0,0.0,0.0,0.0,21.752325305539454,63.8974923198794,180.58091734167442,192.87563324162502,364.1164927208787,356.2552332715126,168.34497721330771,146.0607311749327,84.94098182011525,18.85585528187769,0.0,0.0,0.0,0.0,0.0,0.0,0.0,0.0,0.0,0.0,0.0,0.0,0.0,0.0,24.589431799901337,63.779353018995465,74.1238888177875,184.48186530170747,389.2384330113316,382.6772936294045,341.5366045514358,269.59976219429075,162.67076422458396,46.105478503672934,0.0,0.0,0.0,0.0,0.0,0.0,0.0,0.0,0.0,0.0,0.0,0.0,0.0,0.0,97.5313398511337,214.74609784804844,299.273298236212,349.93037249135335,371.0326377631734,362.0475855611203,324.2770992257809,257.0687676925722,161.01505073906142,47.16990772706,0.0,0.0,0.0,0.0,0.0,0.0,0.0,0.0,0.0,0.0,0.0,0.0,0.0,0.0,92.92096832808113,205.22971267087559,285.50037168092257,334.6210472668571,354.7770226161738,345.0831346088172,309.8541126367718,247.25674038433158,154.57205065801833,45.573557770837326,0.0,0.0,0.0,0.0,0.0,0.0,0.0,0.0,0.0,0.0,0.0,0.0,0.0,0.0,61.651670087653024,141.33163259328037,162.9070428263518,241.81821823965987,270.72296718926185,259.4333169833983,236.20278102252013,173.72354807096374,106.39766499458699,30.382371847224878,0.0,0.0,0.0,0.0,0.0,0.0,0.0,0.0,0.0,0.0,0.0,0.0,0.0,0.0,73.29632595388415,171.24144723696952,165.9210643931817,308.19839915124936,325.16343786126833,235.9071388914524,32.746921138051036,229.34658726724118,135.47991677437278,38.1260797534229,0.0,0.0,0.0,0.0,0.0,0.0,0.0,0.0,0.0,0.0,0.0,0.0,0.0,0.0,20.74784736916812,33.396981171770584,50.36143212407369,77.84792170535262,61.47416725746918,42.67708774717556,43.268372009311065,16.78694812211928,8.630046541685424,0.17750283018381788,0.0,0.0,0.0,0.0,0.0,0.0,0.0,0.0,0.0,0.0,0.0,0.0,0.0,0.0,97.64947915201763,212.79532998917398,296.2586889116663,347.86146533159507,368.90436707411516,360.6881019643814,326.34600638553934,262.2704234777602,161.42883217101308,51.130219216393,0.0,0.0,0.0,0.0,0.0,0.0,0.0,0.0,0.0,0.0,0.0,0.0,0.0,0.0,92.74346549789732,205.05220984069175,286.91921880696145,336.09867016447987,356.66901470346426,349.33908822921796,314.58262346070836,201.91946121526212,134.35671177940168,50.77521355602537,0.0,0.0,0.0,0.0,0.0,0.0,0.0,0.0,0.0,0.0,0.0,0.0,0.0,0.0,28.964112478901864,88.84192978014838,151.26238696012072,153.0944277603954,196.954084031842,186.01885172863027,167.93119578135602,120.82065158359596,74.1238888177875,21.27976810200373,0.0,0.0,0.0,0.0,0.0,0.0,0.0,0.0,0.0,0.0,0.0,0.0,0.0,0.0,97.59011562271772,214.50981924628056,304.00180906014845,356.1365062129128,378.12569787793603,371.564558496009,333.7341208736538,269.0090656898711,167.51741434940442,55.91809356962936,0.0,0.0,0.0,0.0,0.0,0.0,0.0,0.0,0.0,0.0,0.0,0.0,0.0,0.0,97.94512128308537,208.83501849984088,289.6975495297393,339.46769739167746,359.74239979959395,354.18632611175417,320.73056916839954,259.61081981358217,167.45805082010452,56.98193503530058,0.0,0.0,0.0,0.0,0.0,0.0,0.0,0.0,0.0,0.0,0.0,0.0,0.0,0.0,97.23569772006591,84.34969755797977,197.84101042504525,245.83789325829272,280.5349944975024,274.80141797947874,236.7352895130716,67.79902803762836,49.0019485273347,32.33313970609936,0.0,0.0,0.0,0.0,0.0,0.0,0.0,0.0,0.0,0.0,0.0,0.0,0.0,0.0,0.0,75.12836675415885,202.56952124898172,284.08211231259963,370.1457113699701,369.85006923890234,338.876413129542,275.5702050717981,173.90105090114758,61.17852512640143,0.0,0.0,0.0,0.0,0.0,0.0,0.0,0.0,0.0,0.0,0.0,0.0,0.0,0.0,70.22235310003855,187.25960826676948,280.1212130655507,374.165386388603,316.17838565921534,355.4276704076092,348.92530679726616,271.0186093203296,104.74253926678026,50.95271638620918,0.0,0.0,0.0,0.0,0.0,0.0,0.0,0.0,0.0,0.0,0.0,0.0,0.0,0.0,51.66213994922862,68.56722737223183,51.66213994922862,77.84792170535262,51.54400064834468,215.21865505158416,196.00838186705468,142.2773347580677,49.415729959286395,6.7974179836948805,0.0,0.0,0.0,0.0,0.0,0.0,0.0,0.0,0.0,0.0,0.0,0.0,0.0,0.0,3.842172188449065,24.82629815938505,38.83491555872649,138.9670833024542,167.28113574763648,77.90669747693669,112.84066507563007,49.17945135751852,29.850451114389273,56.213735700697114,0.0,0.0,0.0,0.0,0.0,0.0,0.0,0.0,0.0,0.0,0.0,0.0,0.0,0.0,24.47129249901741,23.28931173246225,90.32014043548712,176.91624798340908,162.25639503491644,202.9833026809333,221.83974572052693,267.53085503453235,172.95534873636024,62.065451519604686,0.0,0.0,0.0,0.0,0.0,0.0,0.0,0.0,0.0,0.0,0.0,0.0,0.0,0.0,19.62464237419701,49.82951139123806,93.21602270143305,347.15204176857566,130.27767323146887,129.56883742616532,147.06579686901986,110.65361861498772,2.7189671934779525,57.69135859832003,0.0,0.0,0.0,0.0,0.0,0.0,0.0,0.0,0.0,0.0,0.0,0.0,0.0,0.0,31.387437541312064,139.49900403528983,301.51912046843836,359.9199026297778,379.95773867821066,378.12569787793603,343.6055117111943,279.70743163359907,181.05347454521007,68.27217299887991,0.0,0.0,0.0,0.0,0.0,0.0,0.0,0.0,0.0,0.0,0.0,0.0,0.0,9.9895301384244,115.08707506557228,229.70100516989302,314.7007627615924,364.5302741528304,385.39626082288254,377.3569107856168,343.0735909783586,280.4174429543343,187.2601960244853,71.75933952696134,0.0,0.0,0.0,0.0,0.0,0.0,0.0,0.0,0.0,0.0,0.0,0.0,0.0,10.167032968608217,110.94926074605549,221.36601300155945,301.22347833737064,349.93037249135335,370.7957714036896,365.1803341865499,343.4285966387264,272.1418143153007,180.69905664255828,69.57229306631899,0.0,0.0,0.0,0.0,0.0,0.0,0.0,0.0,0.0,0.0,0.0,0.0,0.0,12.826636632786286,116.62347373477924,229.76036869919292,319.84305501748037,358.56041903303884,378.18447364952004,317.715372086138,301.2834296243864,230.94234946574804,182.35418237036504,39.36742404927794,0.0,0.0,0.0,0.0,0.0,0.0,0.0,0.0,0.0,0.0,0.0,0.0,0.0,0.2362786017678636,64.78441871308266,148.30655340715902,209.60321783444442,238.62669384264615,281.6581994924736,298.090729711941,198.25420409928105,174.37419586239915,123.59898230637377,41.908888412572075,0.0,0.0,0.0,0.0,0.0,0.0,0.0,0.0,0.0,0.0,0.0,0.0,0.0,2.837106494361884,104.38812136412848,209.30816346109253,293.3028553587047,344.4918503466816,365.77161844868544,360.1561812315457,328.41432578758184,265.4625356324897,169.8819636402305,65.6713451062859,0.0,0.0,0.0,0.0,0.0,0.0,0.0,0.0,0.0,0.0,0.0,0.0,0.0,0.0,15.545603826264234,22.047967436607212,69.9267109689708,97.82698198220145,104.32875783482856,126.31794949985172,80.44874959794664,69.80857166808686,74.30139164797133,27.60404112444705,0.0,0.0,0.0,0.0,0.0,0.0,0.0,0.0,0.0,0.0,0.0,0.0,0.0,0.0,1.7139014993907715,76.25157174912995,135.6574196045566,175.6155401582542,265.58067493337364,303.4698883273128,237.4441253183752,293.7166367906563,110.8311214451715,37.94857692323908,0.0,0.0,0.0,0.0,0.0,0.0,0.0,0.0,0.0,0.0,0.0,0.0,0.0,12.472218730134488,38.71677625784257,83.46335892249235,147.1245726406039,203.63336271465286,393.848804534384,380.25338080927844,346.4426182055562,284.73217234631915,192.10684614930568,77.492916044985,0.0,0.0,0.0,0.0,0.0,0.0,0.0,0.0,0.0,0.0,0.0,0.0,0.0,15.959385258215914,118.39732652118572,228.99158160687355,308.25776268054926,356.66901470346426,373.86974425753533,366.48104201170486,335.15296799969263,275.33392647003024,186.01885172863027,75.42400888522657,0.0,0.0,0.0,0.0,0.0,0.0,0.0,0.0,0.0,0.0,0.0,0.0,0.0,14.541125889892895,45.04163703800171,188.44217679104045,227.75023731101854,352.23555825287974,370.7369956321056,364.1758562501786,332.4927765777988,272.91001364990416,184.65936813189128,71.70056375537729,0.0,0.0,0.0,0.0,0.0,0.0,0.0,0.0,0.0,0.0,0.0,0.0,0.0,6.443000081043085,23.939371766181804,117.80604225905023,110.8311214451715,153.0350642310955,210.07636279569599,171.30022300855356,218.5294942649135,107.69837281974189,33.574484001954396,0.05936352929988613,0.0,0.0,0.0,0.0,0.0,0.0,0.0,0.0,0.0,0.0,0.0,0.0,0.0,0.0,3.0739728538455884,1.5369864269227942,18.50143737922589,119.99308871969258,83.28585609230853,192.16620967860558,208.48001283947326,138.0213811376669,15.132410152028394,70.93177666305799,0.0,0.0,0.0,0.0,0.0,0.0,0.0,0.0,0.0,0.0,0.0,0.0,0.0,21.338543873587774,133.7060639879663,253.10845620323917,339.05391595972577,392.6074602385289,412.1727390834262,389.82912951575116,356.1964574999285,293.3034431164205,201.32817695312664,85.11848465029908,0.0,0.0,0.0,0.0,0.0,0.0,0.0,0.0,0.0,0.0,0.0,0.0,0.0,22.579888169442825,131.10582385308808,241.05001890505642,319.5480006441286,367.19046557472427,386.2238236867858,378.18447364952004,345.0243588372332,284.90967517650296,195.0033161729675,82.10387532575338,0.0,0.0,0.0,0.0,0.0,0.0,0.0,0.0,0.0,0.0,0.0,0.0,0.0,15.013683093428627,118.6929686522535,186.1957668010983,257.1869069934561,311.9817955681143,312.1592983982982,312.27743769918214,187.20083249518538,131.16459962467218,179.81213024935505,78.79362387013992,0.0,0.0,0.0,0.0,0.0,0.0,0.0,0.0,0.0,0.0,0.0,0.0,0.0,8.570683012385539,73.00068382281637,164.0296600636071,195.83087903687084,238.62610608493043,232.8925295669067,287.39177601049715,213.6228928530773,107.87528789220987,33.75198683213822,33.45634470107047,0.0,0.0,0.0,0.0,0.0,0.0,0.0,0.0,0.0,0.0,0.0,0.0,0.0,18.323934549042075,89.84699547423556,121.05693018536378,200.5599776185232,278.5254508670439,274.68327867859483,252.75345054287152,218.82454863826538,211.61334922261884,122.83019521405446,28.49096751765029,0.0,0.0,0.0,0.0,0.0,0.0,0.0,0.0,0.0,0.0,0.0,0.0,0.0,9.753251536656537,54.08546501163881,142.5729768891354,147.12398488288804,184.12685964133985,224.08556795275325,260.20151631800184,229.70100516989302,203.4558598844691,147.53835407255556,45.81042413032104,0.0,0.0,0.0,0.0,0.0,0.0,0.0,0.0,0.0,0.0,0.0,0.0,0.0,26.36328458630784,133.23350678443057,238.92174821599806,314.58262346070836,357.259711207884,386.6963808903215,375.34736715515817,337.6944323629868,272.31931714548455,178.15700452154832,77.37477674410107,0.0,0.0,0.0,0.0,0.0,0.0,0.0,0.0,0.0,0.0,0.0,0.0,0.0,28.84538542030209,142.7504797193192,257.48254912452387,340.29526025558084,390.95233451072227,410.45883758403534,402.4200753044854,330.0106757438045,302.9973311237772,192.34371250878945,92.32968406594564,0.0,0.0,0.0,0.0,0.0,0.0,0.0,0.0,0.0,0.0,0.0,0.0,0.0,28.07718608569861,130.51453959095258,222.72608435601433,340.88654451771635,386.2238236867858,402.6563539062533,391.12983734090614,348.8665310256822,271.3736149806972,180.69905664255828,77.6704188751688,0.0,0.0,0.0,0.0,0.0,0.0,0.0,0.0,0.0,0.0,0.0,0.0,0.0,29.850451114389273,13.358557365621898,260.9697156526053,114.31828797325298,139.97214899654136,193.05254831409303,412.9415261757455,368.4905856421634,304.00180906014845,204.16528344748852,91.97467840557802,0.0,0.0,0.0,0.0,0.0,0.0,0.0,0.0,0.0,0.0,0.0,0.0,0.0,33.042563269118794,147.00643333971996,255.47241773634948,331.2514322819437,377.3569107856168,395.56329379149065,389.12029371044747,353.7137689082185,294.7810660140434,204.6972041803241,92.32968406594564,0.0,0.0,0.0,0.0,0.0,0.0,0.0,0.0,0.0,0.0,0.0,0.0,0.0,35.05210689957731,155.39961352192168,268.6540600295034,351.4673589182762,401.0012281784465,420.03458629050806,410.39947405473544,374.34288921878687,300.51464253206706,210.37200492676376,96.34935908457851,4.906013654120291,0.0,0.0,0.0,0.0,0.0,0.0,0.0,0.0,0.0,0.0,0.0,0.0,35.465888331528994,151.6168048627725,263.4524042443154,340.8271809884164,385.33689729358264,387.76081011370866,379.7808236057428,345.0243588372332,282.42698658479287,197.13158686202576,88.78315400856432,3.3690272271974973,0.0,0.0,0.0,0.0,0.0,0.0,0.0,0.0,0.0,0.0,0.0,0.0,34.874604069393484,136.3074796382761,258.13260915824344,336.98500879996743,381.61286440601737,396.7452745580457,391.42547947197386,339.17264301832563,279.1760986584793,193.2300511442768,86.65488331950604,3.014609324545701,0.0,0.0,0.0,0.0,0.0,0.0,0.0,0.0,0.0,0.0,0.0,0.0,36.5890933265001,149.7254005331979,256.77312556150446,335.3298830721606,381.19908297406573,401.41500961039833,394.5582280974034,360.15676898926165,299.74644319746363,202.51015771968184,92.32968406594564,5.319795086071973,0.0,0.0,0.0,0.0,0.0,0.0,0.0,0.0,0.0,0.0,0.0,0.0,33.27884187088665,128.68191103296206,256.7137620322045,298.6820139740765,377.0618564122648,391.4842552435578,382.14537289656886,347.3883203703434,284.2596151427834,145.58758621368108,88.84192978014838,4.492232222168608,0.0,0.0,0.0,0.0,0.0,0.0,0.0,0.0,0.0,0.0,0.0,0.0,37.23915336021965,145.64694974298098,197.3678654637937,228.45966087403798,242.70514463286312,355.6045854800772,384.33241935721117,237.14848318730742,280.53558225521823,190.33358112061504,87.83745184377703,4.019675018632883,0.0,0.0,0.0,0.0,0.0,0.0,0.0,0.0,0.0,0.0,0.0,0.0,31.74185544396386,113.90509429901712,219.65211150216868,326.69983653047524,374.5791678205546,298.62265044477664,326.52292145800726,282.19070798302494,256.47748343043673,186.19635455881408,89.07879613963205,5.024152955004222,0.0,0.0,0.0,0.0,0.0,0.0,0.0,0.0,0.0,0.0,0.0,0.0,27.781543954630862,99.18646557894041,99.48210771000817,56.5681536033489,152.32622842579198,206.5891962676146,384.15491652702735,349.69350613186964,290.46574886434274,202.6876605498656,91.14770329939049,6.561139381927018,0.0,0.0,0.0,0.0,0.0,0.0,0.0,0.0,0.0,0.0,0.0,0.0,42.972729878243314,155.99089778405715,260.3790191481856,252.4583961695196,380.0171022075105,393.966943835268,387.99708871547637,355.19139180584136,295.7855439504148,207.59367420398598,94.87114842923978,7.7431201484821734,0.0,0.0,0.0,0.0,0.0,0.0,0.0,0.0,0.0,0.0,0.0,0.0,44.8641342078179,155.63589212368956,255.1773633629976,325.22221363285234,377.2387714847328,394.9126460000553,384.3911951287952,305.24315335600363,292.06209882056544,199.0817669631844,94.63486982747192,7.68434437689813,0.0,0.0,0.0,0.0,0.0,0.0,0.0,0.0,0.0,0.0,0.0,0.0,44.27343770339823,152.73942210002778,223.316780860434,241.87758176895974,310.14916701012385,345.73319464253683,309.08532554445264,300.5734183036511,256.47748343043673,126.02230736878401,60.41032579179797,3.014609324545701,0.0,0.0,0.0,0.0,0.0,0.0,0.0,0.0,0.0,0.0,0.0,0.0,6.147357949975334,25.65386102328841,40.5494048158331,76.42907457931378,40.96318624778478,27.190259692495363,93.27538623073296,129.2144195235135,9.812027308240582,73.11882312370031,34.697688996925514,0.05936352929988613,0.0,0.0,0.0,0.0,0.0,0.0,0.0,0.0,0.0,0.0,0.0,0.0,24.47129249901741,76.13343244824603,121.82571727768313,114.141372900785,170.827078047302,138.9670833024542,130.6920424211364,142.69170394773516,137.48946040483128,42.440809145407684,19.62464237419701,0.0,0.0,0.0,0.0,0.0,0.0,0.0,0.0,0.0,0.0,0.0,0.0,0.0,7.270562944946447,30.796153279176565,114.9683480069725,166.51234865531714,281.0675029880539,385.7506787255342,311.50865060686283,302.76046476429343,283.1364101478123,123.59898230637377,59.34648432612675,3.5465300573813154,0.0,0.0,0.0,0.0,0.0,0.0,0.0,0.0,0.0,0.0,0.0,0.0,52.54847858471602,57.041298564600474,175.2017587263025,277.9341666049084,394.9126460000553,411.1088976177549,406.79416822577,375.5842335146418,314.0507027278728,115.26399013804027,58.163915801855744,4.787874353236361,0.0,0.0,0.0,0.0,0.0,0.0,0.0,0.0,0.0,0.0,0.0,0.0,62.65673578174019,189.68352108689552,300.45527900276716,379.3670421737911,422.87169278487,437.70846080583055,430.2016192591163,390.00722010365087,323.33080930327776,227.33645587906685,106.39766499458699,11.585292336931241,0.0,0.0,0.0,0.0,0.0,0.0,0.0,0.0,0.0,0.0,0.0,0.0,61.88794868942088,182.8855153454848,285.67787451110644,355.84145183956093,394.73573092758727,405.5528239299152,402.5382146053693,362.87514842502367,299.33266176551183,211.08142848978318,102.5554928061379,11.053371604095625,0.0,0.0,0.0,0.0,0.0,0.0,0.0,0.0,0.0,0.0,0.0,0.0,61.119749354817394,177.74322308959663,276.5746830081694,359.0329762365745,401.2375067802144,221.780382191227,410.9907583168709,372.9246298504637,311.5680141361627,214.21417711521283,104.97940562626397,13.18164229315392,0.0,0.0,0.0,0.0,0.0,0.0,0.0,0.0,0.0,0.0,0.0,0.0,60.23282296161416,174.61047446416703,274.80141797947874,345.7925581718367,185.78257312686242,316.29652496009913,322.0894650074227,242.29136320091143,154.74955348820214,120.40687015164427,59.40526009771079,5.615437217139722,0.0,0.0,0.0,0.0,0.0,0.0,0.0,0.0,0.0,0.0,0.0,0.0,6.679278682810949,14.777404491660759,16.196251617699627,54.85425210395814,121.94385657856706,167.2217722183366,215.1011035084161,169.7044608100467,167.93119578135602,79.62118673404329,39.9581205536976,2.5414643632941343,0.0,0.0,0.0,0.0,0.0,0.0,0.0,0.0,0.0,0.0,0.0,0.0,2.6008278925940203,11.171510904979561,41.84952488327219,64.96192154326647,67.26710730479273,71.87747882784527,49.415729959286395,55.7993665110296,48.05624636254743,26.24455752770807,12.117800827482695,0.0,0.0,0.0,0.0,0.0,0.0,0.0,0.0,0.0,0.0,0.0,0.0,0.0,1.1232049949711125,1.0638414656712265,18.737715980993755,31.564940371495886,55.9768693412134,40.194986913181296,47.99747059096338,28.84538542030209,58.87333936487517,48.76566992556685,23.58495386353,0.5912842621354993,0.0,0.0,0.0,0.0,0.0,0.0,0.0,0.0,0.0,0.0,0.0,0.0,64.01621937847915,174.66983799346687,268.9497021605712,335.0342409410929,210.37200492676376,182.11731601088127,244.06462822960208,191.7524282466539,303.4698883273128,99.95466491354388,103.14677706827341,13.831702326873465,0.0,0.0,0.0,0.0,0.0,0.0,0.0,0.0,0.0,0.0,0.0,0.0,17.792013816206463,87.36430688252547,175.6155401582542,201.32817695312664,175.7336794591381,191.69365247506988,225.32691224860835,193.40755397446063,259.37395345409846,148.48405623734288,76.13343244824603,10.5808144005599,0.0,0.0,0.0,0.0,0.0,0.0,0.0,0.0,0.0,0.0,0.0,0.0,70.93177666305799,185.1912888647269,253.28537127570718,296.90874894538587,346.9745389383918,363.1114270267916,348.6296646661985,317.2428148826023,258.9601720221468,152.50373125597574,77.6704188751688,11.349013735163373,0.0,0.0,0.0,0.0,0.0,0.0,0.0,0.0,0.0,0.0,0.0,0.0,68.62659090153171,159.06428288018694,200.85561974959091,225.97697228232792,237.0309316441393,263.6299070744992,318.5429349500413,270.60482788837794,156.2865399151249,86.30046541685425,42.854590577359374,4.551595751468496,0.0,0.0,0.0,0.0,0.0,0.0,0.0,0.0,0.0,0.0,0.0,0.0,33.870126133022154,82.3989296991053,130.3964002900687,350.1072875638214,386.9332472498053,403.9564739736924,392.9031023695967,360.62932619279724,300.1596368716994,206.8254748693824,49.47509348858628,14.541125889892895,0.0,0.0,0.0,0.0,0.0,0.0,0.0,0.0,0.0,0.0,0.0,0.0,71.22741879412574,177.8619501481964,164.8578106852263,229.99605954324488,295.1354839166952,386.34196298766983,373.9878835584192,341.0052715763161,284.85031164720306,202.56952124898172,58.991478665759104,8.452543711501606,0.0,0.0,0.0,0.0,0.0,0.0,0.0,0.0,0.0,0.0,0.0,0.0,12.117800827482695,61.53353078676908,107.46150646025819,117.09661869603079,172.48220377510873,248.8525025828384,272.7330985774362,264.7531120694703,300.1596368716994,141.21349329239644,45.92856343120496,6.029218649091402,0.0,0.0,0.0,0.0,0.0,0.0,0.0,0.0,0.0,0.0,0.0,0.0,79.73932603492723,199.73182699690395,300.86906043471885,371.2095528356413,411.87709695235833,427.60079136652223,416.3699169322428,379.3670421737911,317.18345135330236,225.97697228232792,112.48624717297828,16.78694812211928,0.0,0.0,0.0,0.0,0.0,0.0,0.0,0.0,0.0,0.0,0.0,0.8275628639033629,81.45322753431797,194.23511683836404,291.82523246108167,350.22601462242125,390.8935587391382,406.0253811334507,410.04505615208365,360.3336840617297,300.10086110011537,213.97789851344498,108.998492887181,17.37823238425478,0.0,0.0,0.0,0.0,0.0,0.0,0.0,0.0,0.0,0.0,0.0,3.014609324545701,85.29539972276707,200.14560842885564,295.96304678059846,362.81637265343966,399.4054659799398,410.5769768849193,400.7649495766789,367.42674417649215,309.2034648453365,221.6028793610432,113.84573076971724,18.50143737922589,0.0,0.0,0.0,0.0,0.0,0.0,0.0,0.0,0.0,0.0,0.0,2.187046460642339,73.59196808495189,142.04105615629982,214.39167994539662,241.05001890505642,299.86399474063165,257.5413248961079,338.04885026563863,183.47738736533614,191.811204018238,209.48566629127635,102.67363210702185,16.728172350535235,0.0,0.0,0.0,0.0,0.0,0.0,0.0,0.0,0.0,0.0,0.0,0.0,68.0946701686961,105.09754492714788,97.76761845290156,108.05279072239372,171.5958651396213,223.78992582168556,133.35164608531448,125.01724167469679,128.44563243119418,79.73932603492723,24.175650367949657,9.87139083754047,0.0,0.0,0.0,0.0,0.0,0.0,0.0,0.0,0.0,0.0,0.0,0.0,27.308986751095127,81.63073036450182,77.37477674410107,369.08186990429886,419.7983076887402,438.18101800936637,415.89677197099127,381.9085065370852,320.1980606778481,228.93280583528957,113.1956707359977,18.56021315080994,0.0,0.0,0.0,0.0,0.0,0.0,0.0,0.0,0.0,0.0,0.0,6.679278682810949,94.1623126239362,216.9919200802748,324.4540142982488,397.33655882018127,440.3092886984246,453.7272095933464,439.18667146116934,398.04598238320085,322.917027871326,170.7683022757179,93.39352553161687,19.9790602768488,0.0,0.0,0.0,0.0,0.0,0.0,0.0,0.0,0.0,0.0,0.0,6.9749208138787,94.45736699728809,213.26847495042549,313.34127916485335,381.0809436731818,420.8621491544114,433.6300100156136,420.4483677224597,382.91357223117234,319.2523585130608,222.3710786956467,115.50085649752396,20.51098100968441,0.0,0.0,0.0,0.0,0.0,0.0,0.0,0.0,0.0,0.0,0.0,8.216265109733742,97.11755841918202,214.33231641609677,307.7258419477136,371.38705566582513,407.2667254293057,418.14318196093353,405.02090319707946,369.7912934673183,311.2135962335109,223.6124229915017,115.67777156999195,19.9790602768488,0.0,0.0,0.0,0.0,0.0,0.0,0.0,0.0,0.0,0.0,0.0,8.807549371869243,95.34429339049136,211.14020426136727,307.01641838469413,371.8008370977769,357.7916319407196,424.7043213428605,413.06025323434517,378.12569787793603,317.2428148826023,221.5435158317433,114.90957223538844,20.215338878616667,0.0,0.0,0.0,0.0,0.0,0.0,0.0,0.0,0.0,0.0,0.0,9.339470104704855,92.32968406594564,203.57458694306888,208.5987398980731,187.20083249518538,210.60828352853162,94.69423335677179,295.431126047763,368.6087249430473,304.06117258944835,215.75116354213557,108.34843285346146,20.570344538984298,0.0,0.0,0.0,0.0,0.0,0.0,0.0,0.0,0.0,0.0,0.0,9.043827973637104,89.61071687246769,129.2144195235135,230.88298593644814,357.0234326061161,307.01641838469413,410.6363404142192,397.86847955301687,365.65347914780153,308.61276834091683,223.2580050888499,113.90450654130129,20.865986670052052,0.0,0.0,0.0,0.0,0.0,0.0,0.0,0.0,0.0,0.0,0.0,10.521450871260011,91.20647907097454,196.1858846972385,233.66131665922603,284.2002516134835,124.78096307292894,268.5952842579194,339.76333952274524,284.6140330454352,165.62601001982978,107.46150646025819,50.243292823189755,19.21086094224533,0.0,0.0,0.0,0.0,0.0,0.0,0.0,0.0,0.0,0.0,0.0,8.807549371869243,15.48682805468019,62.242954349788505,80.98067033078226,100.1321677437277,190.51108395079888,282.3676230554929,167.5761901209884,157.70538704116382,95.22615408960743,79.62118673404329,47.99747059096338,20.865986670052052,0.0,0.0,0.0,0.0,0.0,0.0,0.0,0.0,0.0,0.0,0.0,5.674800746439607,32.56941830786722,209.13066063090864,222.43102998266238,264.6937485401704,280.89000015787,264.9300271419383,298.1500932412409,266.28951073867734,249.26628401479007,172.6009308337085,111.24490287712322,22.639251698742708,0.0,0.0,0.0,0.0,0.0,0.0,0.0,0.0,0.0,0.0,0.0,0.5912842621354993,5.497297916255791,22.34360956767496,34.46082263744181,35.70216693329686,56.98193503530058,70.34049240092249,164.03024782132294,144.52374474800988,109.53041362001663,70.87300089147394,20.27470240791655,0.0,0.0,0.0,0.0,0.0,0.0,0.0,0.0,0.0,0.0,0.0,0.0,14.304847288125034,104.56562419431226,218.7657728666813,304.7112326231678,364.7665527545983,400.6462225180789,411.93646048165823,399.9967502420752,367.95866490932775,308.9671862435687,224.6174886855889,119.04738655490529,23.053033130694388,0.0,0.0,0.0,0.0,0.0,0.0,0.0,0.0,0.0,0.0,0.0,15.545603826264234,104.62439996589632,212.1452699554544,298.50451114389267,358.7373341055069,326.936702889959,408.80371185622863,393.2581080299644,360.80682902298105,301.51970822615425,67.73966450832846,117.27412152621464,23.99873529548169,0.0,0.0,0.0,0.0,0.0,0.0,0.0,0.0,0.0,0.0,0.0,15.959385258215914,108.11215425169357,225.44505154949226,321.20253861421946,387.4651679826408,425.7087992792318,436.58525581085945,373.9878835584192,296.0811860814825,326.6410607588912,233.66131665922603,101.13723343781488,24.05751106706573,0.0,0.0,0.0,0.0,0.0,0.0,0.0,0.0,0.0,0.0,0.0,16.78694812211928,108.998492887181,225.14940941842445,320.07992137696414,386.1056843859019,424.99996347392823,436.40775298067564,425.11810277481214,388.2927308465442,325.57721929322,235.25707885773284,74.95145168169087,24.5306560283173,0.0,0.0,0.0,0.0,0.0,0.0,0.0,0.0,0.0,0.0,0.0,17.496371685138712,109.41227431913269,217.22878643975847,314.2276178003408,378.77575791165566,416.07427480117514,426.83200427420286,414.8922940346199,377.5937771451004,213.38661425130948,223.02172648708202,117.92418155993415,26.24455752770807,0.0,0.0,0.0,0.0,0.0,0.0,0.0,0.0,0.0,0.0,0.0,18.442073849926004,110.12169788215212,217.93762224506213,304.651869093868,364.2346320217626,398.16412168408476,407.7398703905574,355.36830687830934,365.35783701673375,305.834437618139,223.73115005010143,121.70699021908335,26.83584178984357,0.0,0.0,0.0,0.0,0.0,0.0,0.0,0.0,0.0,0.0,0.0,18.85585528187769,112.5450229445623,220.36153506518815,314.5232599314085,376.766214281197,411.8183211807743,424.2905399109088,412.88216264644564,287.86492097174875,319.3117220423606,231.00112523733208,121.53007514661535,26.30392105700795,0.0,0.0,0.0,0.0,0.0,0.0,0.0,0.0,0.0,0.0,0.0,9.930166609124514,41.554470509920286,134.17920894921784,229.46472656812512,288.86998666583594,308.3171262098492,324.4540142982488,386.9920230213893,352.4130610830636,295.2536232175792,214.50981924628056,114.61393010432072,25.65386102328841,0.0,0.0,0.0,0.0,0.0,0.0,0.0,0.0,0.0,0.0,0.0,19.21086094224533,74.71458532220716,161.96134066156452,221.48474006015925,210.13572632499591,363.643935517343,186.25513033039815,352.76747898571534,227.9871036705022,209.48507853356048,122.29827448121885,63.720577247411406,20.51098100968441,0.0,0.0,0.0,0.0,0.0,0.0,0.0,0.0,0.0,0.0,0.0,5.733576518023655,36.88473545756786,175.7336794591381,129.92325532881708,253.22659550412308,294.42606035367567,300.2190004009993,144.34624191782603,141.6272747243481,141.86355332611598,102.49671703455387,58.34141863203956,17.37823238425478,0.0,0.0,0.0,0.0,0.0,0.0,0.0,0.0,0.0,0.0,0.0,20.452205238100365,54.02668924005477,155.87275848317327,216.34186004655524,143.2230369228549,325.93163719587176,345.43814026918477,267.23521290346457,234.72515812489723,154.0994934544826,107.93465142150976,55.32680930749386,18.323934549042075,0.0,0.0,0.0,0.0,0.0,0.0,0.0,0.0,0.0,0.0,0.0,0.5912842621354993,55.0311671764261,13.063502992269989,20.09719957773273,77.19727391391727,155.81339495387337,201.03312257977475,158.9467313370188,142.98675832108708,162.67076422458396,131.93338671699144,74.83331238080694,21.5160467037716,0.0,0.0,0.0,0.0,0.0,0.0,0.0,0.0,0.0,0.0,0.0,0.0,66.14390230982164,69.9267109689708,67.03082870302488,263.6299070744992,222.43044222494652,130.57390312025248,166.4529851260173,108.70285075611325,95.1080147887235,89.01943261033219,22.639251698742708,12.412855200834606,0.0,0.0,0.0,0.0,0.0,0.0,0.0,0.0,0.0,0.0,0.0,5.851715818907587,17.969516646390282,44.450352775866214,167.10363291745267,378.3619764797039,409.631274720132,421.33470635794714,361.87067048865237,379.1895393436072,320.1980606778481,228.1640187429702,124.72159954362905,28.313464687466467,0.0,0.0,0.0,0.0,0.0,0.0,0.0,0.0,0.0,0.0,0.0,22.934893829810463,119.34302868597301,225.44505154949226,307.31206051576186,364.2346320217626,396.567771727862,404.9021761384797,391.54420653057366,357.9103589993193,301.04656326490266,220.59781366695603,120.34750662234435,26.83584178984357,0.0,0.0,0.0,0.0,0.0,0.0,0.0,0.0,0.0,0.0,0.0,22.816166771210685,117.98354508923407,222.3710786956467,302.16918050215793,356.07773044132875,386.9920230213893,395.326427432007,384.92370361934667,354.18632611175417,299.92335826993155,221.13032215750744,121.76635374838321,27.781543954630862,0.0,0.0,0.0,0.0,0.0,0.0,0.0,0.0,0.0,0.0,0.0,24.412516727433363,119.04738655490529,224.6174886855889,306.3663583509746,363.05265125520754,394.73573092758727,403.1882746390889,408.62679678376077,359.6242604987101,305.65693478795515,225.97697228232792,124.54468447116108,28.84538542030209,0.0,0.0,0.0,0.0,0.0,0.0,0.0,0.0,0.0,0.0,0.0,24.88507393096909,118.39673876346991,221.66165513262717,301.04656326490266,357.85099547001937,388.4108701474282,396.390856655394,358.26477690197106,352.8268425150152,298.0319539403569,218.23385213384566,120.64314875341209,29.496033211737476,0.0,0.0,0.0,0.0,0.0,0.0,0.0,0.0,0.0,0.0,0.0,25.121940290452798,117.74667872975034,213.85975921256104,308.6715441125009,365.7128426771014,355.01388897565755,410.2225589822675,396.86341385892985,362.2844519206041,306.83950331222616,219.061414997749,121.2344330155476,29.67294828420545,0.0,0.0,0.0,0.0,0.0,0.0,0.0,0.0,0.0,0.0,0.0,22.934893829810463,99.30460487982435,187.37833532536925,267.767721394016,192.34371250878945,206.6479720391986,355.84145183956093,350.46229322418907,321.6163200461712,237.50348884767502,215.86930284301957,106.16138639281913,30.32359607564084,0.0,0.0,0.0,0.0,0.0,0.0,0.0,0.0,0.0,0.0,0.0,27.840907483930746,105.33382352891577,174.1379172606313,238.50855454176224,245.83789325829272,298.56387467319263,332.90655800975037,315.94210705744734,251.92647543668403,146.00136764563274,105.80638073245147,75.77901454559424,21.870464606423393,0.0,0.0,0.0,0.0,0.0,0.0,0.0,0.0,0.0,0.0,0.0,6.561139381927018,75.77901454559424,140.50406972937694,188.20589818927257,267.41271573364844,282.89954378832863,317.0059485231185,374.5198042912549,339.1132794890257,286.2103830016579,209.24879993179263,114.67329363362059,31.683079672379808,0.0,0.0,0.0,0.0,0.0,0.0,0.0,0.0,0.0,0.0,0.0,21.042901742520023,66.14390230982164,137.48946040483128,197.42722899309356,183.24052100585243,189.80166038777944,283.5496038220481,270.7823307185617,306.4251341225587,247.25674038433158,212.32277278563825,118.10168439011801,32.805696909635074,0.0,0.0,0.0,0.0,0.0,0.0,0.0,0.0,0.0,0.0,0.0,28.49096751765029,117.62912718658224,220.24339576430424,302.8786040651774,282.7220409581448,380.1946050376944,387.5833072835248,375.2885913835742,342.3641674153392,150.25732126603353,215.15987928000007,118.81110795313742,32.45127900698329,0.0,0.0,0.0,0.0,0.0,0.0,0.0,0.0,0.0,0.0,0.0,27.66340465374693,116.56469796319521,217.16942291045865,178.51142242420013,305.30251688530336,391.6617580737417,401.3556460810983,375.05231278180617,293.1847160578207,230.41042873291244,173.66477229937973,94.0435855653364,24.648795329201228,0.0,0.0,0.0,0.0,0.0,0.0,0.0,0.0,0.0,0.0,0.0,16.9644509523031,4.492232222168608,63.48371088792772,125.01724167469679,282.7220409581448,192.5799911105573,167.75369295117227,258.60575411949503,261.62036344404066,136.24811610897623,92.27032053664577,65.78948440716985,34.28390756497382,0.0,0.0,0.0,0.0,0.0,0.0,0.0,0.0,0.0,0.0,0.0,30.796153279176565,131.81524741610752,244.71468826332162,331.01515368017584,390.06599587523493,423.16733491593766,430.26039503070035,414.4197368310842,378.83512144095533,319.72550347431235,236.55778668288775,129.39133459598148,34.697688996925514,0.0,0.0,0.0,0.0,0.0,0.0,0.0,0.0,0.0,0.0,0.0,30.855516808476448,126.79050670338745,227.86837661190242,307.90334477789736,361.69316765846855,391.8392609039255,399.8186596541755,390.2434987054187,355.4870339369092,302.6423254634095,223.6717865208016,126.49486457231971,34.57954969604158,0.0,0.0,0.0,0.0,0.0,0.0,0.0,0.0,0.0,0.0,0.0,17.496371685138712,124.84032660222886,225.14940941842445,304.651869093868,360.3924598333135,391.2479766417901,399.22796314975585,281.008139458754,357.9103589993193,301.16470256578657,222.72608435601433,125.19474450488062,34.10640473479001,0.0,0.0,0.0,0.0,0.0,0.0,0.0,0.0,0.0,0.0,0.0,30.796153279176565,120.82065158359596,218.23326437612982,295.2536232175792,348.68902819549845,378.4213400090038,386.40073875925367,334.26604160648947,348.8071674963823,71.81870305626123,113.01816790581387,124.18967881079344,36.47095402561617,0.0,0.0,0.0,0.0,0.0,0.0,0.0,0.0,0.0,0.0,0.0,32.21500040521543,98.77268414698874,215.80993931371967,291.8845959903816,344.07806891473,373.86974425753533,331.4289351121276,252.33966911091983,97.64947915201763,262.92048351147974,170.59079944553415,122.47577731140268,37.180377588635615,0.0,0.0,0.0,0.0,0.0,0.0,0.0,0.0,0.0,0.0,0.0,31.919358274147676,118.6929686522535,215.10051575070025,291.82523246108167,345.43814026918477,375.8205121164097,209.48507853356048,379.54454500397486,342.83731237659083,290.7613909954105,215.15987928000007,104.74253926678026,36.293451195432354,0.0,0.0,0.0,0.0,0.0,0.0,0.0,0.0,0.0,0.0,0.0,31.505576842196003,121.05693018536378,223.08109001638195,303.52925185661275,359.15111553745857,390.95233451072227,399.8186596541755,390.006632345935,357.2009354362999,301.75598682792213,217.11064713887455,124.72159954362905,36.5890933265001,0.0,0.0,0.0,0.0,0.0,0.0,0.0,0.0,0.0,0.0,0.0,31.8599947448478,119.69744658862484,215.278018580884,300.45527900276716,358.61919480462296,390.06599587523493,398.5779031160364,387.170113609289,354.1269625824543,289.9931916608071,214.33231641609677,123.59898230637377,36.88473545756786,0.0,0.0,0.0,0.0,0.0,0.0,0.0,0.0,0.0,0.0,0.0,19.860920975964863,115.73713509929183,196.18529693952263,263.09857409937945,342.89608814817484,345.6744188709527,316.3558884893991,348.9846703265662,295.66740464953085,263.9255492055669,191.87056754753783,121.64821444749931,37.35729266110358,0.0,0.0,0.0,0.0,0.0,0.0,0.0,0.0,0.0,0.0,0.0,32.62878183716711,101.19600920939894,211.85021558210246,285.79601381199035,336.8080937274994,365.1215584149659,374.9335857232065,365.23969771584984,201.5644555548945,234.72515812489723,209.5444420628604,101.78729347153444,38.953642617326274,0.0,0.0,0.0,0.0,0.0,0.0,0.0,0.0,0.0,0.0,0.0,33.515120472654516,116.32841936142735,208.1849584661214,282.3676230554929,334.73918656774094,364.5896376821303,374.6973071214386,363.820850589811,332.0789951458471,245.06969392368924,194.1169775374801,92.97974409966518,35.22960972976113,0.0,0.0,0.0,0.0,0.0,0.0,0.0,0.0,0.0,0.0,0.0,28.786609648718038,118.63360512295358,186.13699102951415,242.76392040444716,304.770008394752,262.6842049097119,273.79694004310744,291.5889538593138,259.55145628428227,257.0687676925722,189.44724248512765,73.94638598760368,36.23408766613248,0.0,0.0,0.0,0.0,0.0,0.0,0.0,0.0,0.0,0.0,0.0,27.545265352863,113.3731735661815,183.65430243780412,250.3301254804613,305.36129265688743,330.6013722482242,356.19586974221266,332.6115036363985,304.4155904921002,294.13100598032383,219.88897786165245,128.0912145285424,36.35281472473224,0.0,0.0,0.0,0.0,0.0,0.0,0.0,0.0,0.0,0.0,0.0,30.264232546340953,92.80282902719723,183.89116879728783,249.14814471390616,290.1107432039752,316.59216709116686,340.4727630857646,318.95671638199315,314.52384768912435,258.3694755177271,170.41388437306617,113.78636724041736,37.00287475845179,0.0,0.0,0.0,0.0,0.0,0.0,0.0,0.0,0.0,0.0,0.0,30.32359607564084,114.31828797325298,164.85722292751046,243.7102103269503,275.39270224161424,237.08970741572338,125.9629438394841,228.99158160687355,287.3330002389132,231.060488766632,180.69846888484244,113.07694367739792,37.5347954912874,0.0,0.0,0.0,0.0,0.0,0.0,0.0,0.0,0.0,0.0,0.0,31.328074012012177,111.4218179495912,196.8953082602579,247.1973768550317,303.7655304583806,316.8284456929348,343.4280088810105,309.3809676755203,274.15135794575923,219.29769359951686,172.95534873636024,110.23983718303604,14.954907321844576,0.0,0.0,0.0,0.0,0.0,0.0,0.0,0.0,0.0,0.0,0.0,28.609106818534226,119.40180445755709,212.9728328193578,287.09613387942943,338.22635309582245,367.2492413463083,375.6430092862259,365.8897577495694,335.6848887325284,286.50543737500976,215.1011035084161,126.14044666966792,40.49004128653321,0.0,0.0,0.0,0.0,0.0,0.0,0.0,0.0,0.0,0.0,0.0,29.377893910853537,118.69238089453764,209.8988599655122,283.78647018153185,335.0936044703928,363.52520845874324,177.21130235676102,202.03760051614609,250.80327044171293,283.31391297799615,210.13572632499591,123.77589737884176,37.594159020587284,0.0,0.0,0.0,0.0,0.0,0.0,0.0,0.0,0.0,0.0,0.0,34.40204686585776,64.90255801396658,205.28907620017543,277.7572515324404,328.94624652041745,277.87539083332433,259.31517768251445,162.1976192633324,39.18992121909413,131.87402318769156,145.11502901014538,102.43735350525394,38.36235835519077,0.0,0.0,0.0,0.0,0.0,0.0,0.0,0.0,0.0,0.0,0.0,31.62371614307993,121.76635374838321,219.53397220128483,296.90874894538587,350.8760746561408,381.73159146461717,390.8935587391382,327.5273993943786,353.4769025487348,299.273298236212,225.2087729477244,132.76094958089482,40.96318624778478,0.0,0.0,0.0,0.0,0.0,0.0,0.0,0.0,0.0,0.0,0.0,33.10133904070283,117.56976365728237,208.36246129630518,280.8306366285702,331.7833530147794,360.6881019643814,370.7369956321056,362.58009405167167,333.5572058011859,284.73217234631915,156.34590344442483,106.63394359635485,42.440809145407684,0.0,0.0,0.0,0.0,0.0,0.0,0.0,0.0,0.0,0.0,0.0,32.33313970609936,119.10616232648935,134.94799604153718,285.3228688507388,185.48693099579467,368.66808847234716,372.5102606607963,284.25902738506755,335.80302803341215,285.73665028269045,216.7556414785069,128.91877739244578,41.84952488327219,0.0,0.0,0.0,0.0,0.0,0.0,0.0,0.0,0.0,0.0,0.0,32.33313970609936,117.86481803063428,209.66316912146016,283.78647018153185,331.7245772431953,272.0236750144168,374.9929492525063,361.39752552740066,332.78841870886663,284.3183909143674,213.6822563823772,127.79557239747463,43.0320934075432,0.0,0.0,0.0,0.0,0.0,0.0,0.0,0.0,0.0,0.0,0.0,33.396981171770584,84.34969755797977,207.53489843240186,278.8798687696957,328.5918286177656,357.85099547001937,366.5991813125888,355.5458097084932,327.05484219084286,205.82040917529525,145.88322834474883,121.53007514661535,39.48556335016188,0.0,0.0,0.0,0.0,0.0,0.0,0.0,0.0,0.0,0.0,0.0,33.396981171770584,116.09155300194362,205.22912491315975,278.466087337744,329.8325851559049,196.00838186705468,261.73850274492463,57.45507999655215,316.29652496009913,282.95890731762853,220.420898594488,131.22396315397202,40.66754411671703,0.0,0.0,0.0,0.0,0.0,0.0,0.0,0.0,0.0,0.0,0.0,32.68755760875115,116.56469796319521,209.0718848593246,282.4857623563769,334.6798230384412,252.10397826686784,378.4213400090038,300.16022462941527,142.5729768891354,15.191185923612439,23.229948203162365,21.456683174471703,12.590358031018422,0.0,0.0,0.0,0.0,0.0,0.0,0.0,0.0,0.0,0.0,0.0,32.68755760875115,116.68283726407913,206.47046920901482,280.4762187259184,332.61091587868265,312.1592983982982,162.25639503491644,242.76392040444716,337.75379589228675,284.90967517650296,215.57366071195182,111.24490287712322,45.277915639769574,0.0,0.0,0.0,0.0,0.0,0.0,0.0,0.0,0.0,0.0,0.0,18.619576680109827,114.141372900785,202.86516338004944,224.08556795275325,329.41880372395315,231.5336337278836,145.7650890438649,220.1252564634203,281.1262787596379,186.13699102951415,50.95271638620918,3.2508879263135646,41.908888412572075,0.0,0.0,0.0,0.0,0.0,0.0,0.0,0.0,0.0,0.0,0.0,32.68755760875115,115.32335366734016,207.00297769956626,282.249483754609,329.596306554137,258.84203272126285,184.65878037417545,272.79187434902025,285.02781447738687,285.1459537782708,209.13066063090864,55.44494860837779,25.180716062036844,0.0,0.0,0.0,0.0,0.0,0.0,0.0,0.0,0.0,0.0,0.0,32.62878183716711,115.67777156999195,206.1754148356629,280.1805765948506,332.25649797603086,242.52764180267934,84.34969755797977,323.33080930327776,292.94843745605283,214.03726204274483,25.35821889222066,44.450352775866214,32.15563687591554,0.0,0.0,0.0,0.0,0.0,0.0,0.0,0.0,0.0,0.0,0.0,20.156563107032614,72.9413202935165,60.8828829953337,66.26204161070555,110.23983718303604,156.87782417726044,303.4698883273128,266.23132272480905,80.62566467041464,15.36868875379626,68.6859544308316,49.82951139123806,30.02795394457309,0.0,0.0,0.0,0.0,0.0,0.0,0.0,0.0,0.0,0.0,0.0,31.801218973263744,115.50085649752396,206.5891962676146,282.0132051528412,328.5324650884657,294.7217024847435,370.3819899717379,359.0923397658744,329.8331729136208,282.249483754609,219.00205146844917,132.11030178945944,43.32773553861094,0.41378143195168143,0.0,0.0,0.0,0.0,0.0,0.0,0.0,0.0,0.0,0.0,27.95904678481468,115.50085649752396,210.13513856728,287.09613387942943,342.77794884729093,273.14629225167204,341.95038598338755,262.0929206475764,308.25776268054926,275.806483673566,222.0760243222948,130.81018172202033,47.93810706166347,0.41378143195168143,0.0,0.0,0.0,0.0,0.0,0.0,0.0,0.0,0.0,0.0,26.008278925940203,114.73206940520464,204.63842840874008,258.01446985735953,328.76874369023363,317.36095418348623,304.06117258944835,340.058981653813,233.89759526099385,244.24213105978592,218.9426879391493,133.17473101284648,43.268372009311065,0.4731449612515676,0.0,0.0,0.0,0.0,0.0,0.0,0.0,0.0,0.0,0.0,31.032431880944422,118.92924725402136,213.15033564954157,286.8010795060776,306.4251341225587,322.7395250411422,395.79957239325853,382.5591543285206,353.004345345199,303.4698883273128,224.32184655452113,136.48498246845995,42.50017267470757,0.886926393203249,0.0,0.0,0.0,0.0,0.0,0.0,0.0,0.0,0.0,0.0,27.190259692495363,96.0537169535108,173.19162733812817,251.39455470384843,295.8449074797146,322.03010147812284,340.17712095469693,362.57950629395583,332.3158615053308,285.38223238003866,217.40628926994236,132.28780461964323,43.85965627144654,0.3544179026517953,0.0,0.0,0.0,0.0,0.0,0.0,0.0,0.0,0.0,0.0,28.84538542030209,106.57516782477079,171.9502830422731,165.9210643931817,140.85907538974462,229.93787152937668,314.1094784994568,229.93728377166087,291.41145102913015,235.67086028968453,183.77244173868806,45.98733920278901,37.65293479217133,0.0,0.0,0.0,0.0,0.0,0.0,0.0,0.0,0.0,0.0,0.0,27.95904678481468,88.25123327572871,208.42182482560517,102.14171137418623,37.83043762235515,27.722768183046817,113.37258580846566,213.1497478918257,361.51566482828486,261.3247213129729,168.6406193443755,120.1705915498764,48.588167095383035,0.9457021647872946,0.0,0.0,0.0,0.0,0.0,0.0,0.0,0.0,0.0,0.0,0.0,26.599563188075706,106.5158042954709,163.37960002988757,294.7804782563275,342.4823067162232,392.37118163676115,326.6410607588912,288.1605631028165,158.17853200241538,196.54030259989028,101.90543277241837,43.682153441262734,0.4731449612515676,0.0,0.0,0.0,0.0,0.0,0.0,0.0,0.0,0.0,0.0,26.30392105700795,113.8451430120014,172.89657296477625,278.76172946881167,329.00561004971735,359.26984259605825,328.0005443556301,311.39051130597886,335.44861013076047,284.2002516134835,216.87436853710673,133.1153674835466,45.1010005673016,0.886926393203249,0.0,0.0,0.0,0.0,0.0,0.0,0.0,0.0,0.0,0.0,30.559874677408697,112.72252577474613,203.9883683750205,277.9935301342083,331.3107958112436,364.2939955510625,374.10602285930315,220.30275929360408,342.54167024552305,289.87505235992313,210.25386562587983,135.59805607525672,45.15977633888565,1.4188471260388624,0.0,0.0,0.0,0.0,0.0,0.0,0.0,0.0,0.0,0.0,28.49096751765029,112.1906050419105,205.4066277433436,241.81880599737568,184.89564673365916,73.82824668671975,210.65647966123052,210.48015234647843,210.62062644056428,210.95917488488843,73.59196808495189,105.8069684901673,45.573557770837326,1.4188471260388624,0.0,0.0,0.0,0.0,0.0,0.0,0.0,0.0,0.0,0.0,29.614172512621398,110.65361861498772,202.6876605498656,204.04949517746795,208.0033413319267,209.56618909834648,212.4385610556588,59.46462362701067,43.44587483949487,133.88356681815011,172.5415673044086,94.9892877301237,32.03749757503161,0.0,0.0,0.0,0.0,0.0,0.0,0.0,0.0,0.0,0.0,0.0,25.416994663804704,110.8311214451715,203.51581117148478,205.93972399161086,209.4539273746209,78.675484569256,70.45921945952226,67.32588307637678,125.19474450488062,162.67017646686813,173.60540877007983,132.16966531875931,45.51478199925328,0.0,0.0,0.0,0.0,0.0,0.0,0.0,0.0,0.0,0.0,0.0,18.08765594727421,101.55101486976658,194.53075896943176,278.70295369722766,235.37580591633258,102.14171137418623,274.2107214750591,283.5496038220481,224.32184655452113,230.23292590272862,111.36304217800716,134.1204331776338,25.59449749398852,0.0,0.0,0.0,0.0,0.0,0.0,0.0,0.0,0.0,0.0,0.0,31.74185544396386,63.720577247411406,163.5571028600714,217.3475134983583,12.354079429250556,28.49096751765029,40.66754411671703,87.48244618340941,185.7232095975625,278.8798687696957,179.04393091475154,6.147357949975334,46.04670273208889,0.0,0.0,0.0,0.0,0.0,0.0,0.0,0.0,0.0,0.0,0.0,27.66340465374693,109.53041362001663,199.73241475461984,274.74264220789473,325.34035293373626,369.9682085397863,380.6671622412301,355.900227611145,328.35555001599784,243.1189260648148,213.80039568326112,130.86954525132023,50.71643778444132,0.0,0.0,0.0,0.0,0.0,0.0,0.0,0.0,0.0,0.0,0.0,29.141027551369834,105.39259930049978,191.45678611558614,271.13674862121354,328.4731015591658,284.6140330454352,310.68108774295945,366.48104201170486,335.0936044703928,283.9046094824157,208.71687919895703,128.20935382942628,43.9184320430306,0.0,0.0,0.0,0.0,0.0,0.0,0.0,0.0,0.0,0.0,0.0,28.727246119418158,106.27952569370304,193.28882691586085,266.4670135688611,285.44159590933856,327.6455386952625,315.82396775656343,311.8042927379305,280.0624372939667,243.8871253994183,188.08775888838866,127.55929379570676,47.93810706166347,0.0,0.0,0.0,0.0,0.0,0.0,0.0,0.0,0.0,0.0,0.0,27.545265352863,104.21061853394464,189.1516003540599,260.5559342206536,316.0602463583313,264.7531120694703,220.89345579802372,354.95452544635765,54.08546501163881,85.47290255295088,96.0537169535108,132.8785011240629,44.62785560605003,0.0,0.0,0.0,0.0,0.0,0.0,0.0,0.0,0.0,0.0,0.0,27.722768183046817,104.74253926678026,190.8655018534507,262.6842049097119,315.2920470237278,346.73826033662385,235.02080025596496,220.59781366695603,329.8325851559049,279.648655862015,213.6822563823772,132.9972281826627,50.65707425514143,0.3544179026517953,0.0,0.0,0.0,0.0,0.0,0.0,0.0,0.0,0.0,0.0,26.12641822682414,106.39766499458699,196.36279976970647,271.49116652386533,325.0447108026685,355.900227611145,331.3107958112436,313.28191563555345,192.16620967860558,249.32564754409,198.5498462303488,125.25410803418049,49.59323278947021,0.3544179026517953,0.0,0.0,0.0,0.0,0.0,0.0,0.0,0.0,0.0,0.0,25.121940290452798,100.84159130674713,159.12423416720262,241.05001890505642,297.8544511101732,286.8010795060776,295.72618042111486,215.39674563948378,262.21164770617617,220.89345579802372,192.93440901320903,125.07660520399669,17.260093083370847,0.0,0.0,0.0,0.0,0.0,0.0,0.0,0.0,0.0,0.0,0.0,6.3836365517432,33.870126133022154,94.9892877301237,110.00355858126815,224.8543550450726,313.63692129592107,292.6527953249851,291.0570331264783,264.6349727685864,203.1602177534013,141.21349329239644,107.69837281974189,41.43574345132051,0.0,0.0,0.0,0.0,0.0,0.0,0.0,0.0,0.0,0.0,0.0,25.89013962505627,66.14390230982164,102.43735350525394,177.3300294153608,269.30412006322297,271.43239075228126,253.462874105891,316.17838565921534,312.27743769918214,233.77945596010997,185.78257312686242,96.0537169535108,34.10640473479001,0.0,0.0,0.0,0.0,0.0,0.0,0.0,0.0,0.0,0.0,0.0,22.107330965907092,101.077869908515,185.84134889844643,258.60575411949503,236.1440052509361,274.447000076827,119.34302868597301,339.3495580907936,301.22347833737064,218.7657728666813,56.036232870513295,24.708158858501115,0.0,0.0,0.0,0.0,0.0,0.0,0.0,0.0,0.0,0.0,0.0,0.0,25.712636794872452,101.19600920939894,186.01826397091443,260.8515763517213,318.3066563482735,195.89024256617077,320.07992137696414,323.2126700023938,206.05668777706313,257.4237733529398,167.8130564804721,112.13124151261064,32.21500040521543,0.0,0.0,0.0,0.0,0.0,0.0,0.0,0.0,0.0,0.0,0.0,24.175650367949657,102.61485633543779,193.5256932753446,237.73976744944287,275.8070714312817,291.23394819894617,237.68040392014302,225.80005720985992,281.008139458754,285.2047295498548,192.99377254250896,125.84480453860016,49.23881488681841,0.3544179026517953,0.0,0.0,0.0,0.0,0.0,0.0,0.0,0.0,0.0,0.0,24.88507393096909,101.49165134046669,190.27480534903103,266.1713714377933,320.8481207115676,353.59504184961867,321.67568357547106,361.9888097895362,333.379702971002,287.15549740872933,218.5289065071976,133.29287031373042,45.21913986818553,0.0,0.0,0.0,0.0,0.0,0.0,0.0,0.0,0.0,0.0,0.0,24.47129249901741,101.077869908515,166.27607005354938,229.4641388104093,213.80039568326112,87.95559114466097,58.163915801855744,143.2230369228549,281.5994237208895,206.35291766584666,169.82260011093064,132.40594392052716,36.41159049631629,0.0,0.0,0.0,0.0,0.0,0.0,0.0,0.0,0.0,0.0,0.0,21.042901742520023,71.22741879412574,193.7031961055284,110.181061411452,261.2059942543732,259.66959558516623,61.119749354817394,88.90129330944826,169.64568503846266,164.68030785504249,131.40146598415583,73.23696242458425,14.304847288125034,0.0,0.0,0.0,0.0,0.0,0.0,0.0,0.0,0.0,0.0,0.0,10.817093002327764,75.3064573420585,27.308986751095127,73.29632595388415,87.95559114466097,166.86735431568482,174.31483233309928,193.5256932753446,204.52028910785614,206.76669909779844,26.008278925940203,65.43447874680217,40.72690764601692,0.0,0.0,0.0,0.0,0.0,0.0,0.0,0.0,0.0,0.0,0.0,7.920622978665992,59.878405058962365,90.37891620707121,150.84860552816903,344.96499530793335,289.8744646022073,377.94819504775217,249.62128967515773,156.70032134707662,273.9150793439913,222.72549659829846,135.0067718131212,47.051180668460226,0.0,0.0,0.0,0.0,0.0,0.0,0.0,0.0,0.0,0.0,0.0,19.801557446664983,103.44241919934116,201.62381908419442,290.1107432039752,348.9846703265662,153.44943342076306,318.77921355180933,375.2292278542742,344.96499530793335,298.2094567705408,227.158953048883,103.02863776738948,43.15023270842713,0.0,0.0,0.0,0.0,0.0,0.0,0.0,0.0,0.0,0.0,0.0,21.5160467037716,101.78729347153444,195.2395947747353,272.6737350481364,326.936702889959,359.68362402800994,258.3694755177271,365.2990612451497,226.39075371427958,290.58388816522665,219.179554298633,132.81972535247886,47.87874353236359,0.0,0.0,0.0,0.0,0.0,0.0,0.0,0.0,0.0,0.0,0.0,22.698027470326753,99.06832627805649,161.42883217101308,242.52822956039512,285.73665028269045,319.37049781394484,362.343227692188,353.59504184961867,162.729539996168,212.67777844600585,215.337382110184,130.63267889183652,41.67260981080422,0.0,0.0,0.0,0.0,0.0,0.0,0.0,0.0,0.0,0.0,0.0,21.870464606423393,97.41320055024977,186.37385738899792,263.0386228123637,318.0110142172058,350.6985718259569,361.9888097895362,359.0329762365745,331.3107958112436,285.0871780066867,217.16942291045865,131.0464603237882,46.519259935624625,0.0,0.0,0.0,0.0,0.0,0.0,0.0,0.0,0.0,0.0,0.0,19.506503073313073,98.1226241132692,192.34371250878945,270.84110649014576,241.75944246807575,130.3964002900687,377.2387714847328,364.2939955510625,349.93037249135335,301.57848399773826,229.759780941477,135.59805607525672,43.32773553861094,0.0,0.0,0.0,0.0,0.0,0.0,0.0,0.0,0.0,0.0,0.0,17.555735214438602,97.70884268131752,179.39834881740342,187.55525039783726,87.42367041182536,223.0805022586661,320.90748424086763,290.6432516945266,240.39995887133682,239.15861457548175,162.67017646686813,110.00355858126815,42.91395410665925,0.0,0.0,0.0,0.0,0.0,0.0,0.0,0.0,0.0,0.0,0.0,16.373166690167597,79.91682886511104,165.44850718964594,248.2612183207029,274.15194570347506,319.9024185467803,370.9732742338735,310.79922704384336,286.2103830016579,264.6349727685864,216.87436853710673,113.25444650758176,40.785683417600964,0.0,0.0,0.0,0.0,0.0,0.0,0.0,0.0,0.0,0.0,0.0,16.9644509523031,97.35383702094988,193.93947470729626,272.2011778446006,327.4686236227945,359.9199026297778,259.37395345409846,46.99240489687618,162.37512209351618,277.9341666049084,229.22786020864143,118.75174442383751,41.908888412572075,0.0,0.0,0.0,0.0,0.0,0.0,0.0,0.0,0.0,0.0,0.0,18.973994582761623,77.07913461303332,159.77429420092218,209.7219448930442,288.3374781752845,182.4723216712489,150.7304662272851,213.50475355219336,236.7940652846557,201.62381908419442,134.00229387674986,60.528465092681905,24.5306560283173,0.0,0.0,0.0,0.0,0.0,0.0,0.0,0.0,0.0,0.0,0.0,9.339470104704855,66.32140514000544,72.82318099263256,76.78349248196557,220.89345579802372,188.4427645487563,192.63935463985715,289.4606831702556,272.49623221795247,259.7877348860501,153.21256706127934,64.01621937847915,41.79074911168814,0.0,0.0,0.0,0.0,0.0,0.0,0.0,0.0,0.0,0.0,0.0,17.614510986022644,95.28492986119149,140.1496518267252,139.91278546724146,331.2514322819437,271.07738509191364,269.2453442916389,367.95866490932775,337.75379589228675,291.3520874998302,154.39513558555038,98.06326058396928,13.5954237251056,0.0,0.0,0.0,0.0,0.0,0.0,0.0,0.0,0.0,0.0,0.0,17.260093083370847,95.34429339049136,188.61967962122432,266.8807950008128,322.38510713849035,354.54074401440596,366.00789705045327,357.6734926398357,132.11030178945944,289.5200466995555,215.278018580884,128.623135261378,41.731385582388256,0.0,0.0,0.0,0.0,0.0,0.0,0.0,0.0,0.0,0.0,0.0,15.959385258215914,94.33922769640415,188.79659469369227,266.3488742679771,321.02562354175154,353.4769025487348,280.2987158957346,373.3965992962836,329.8331729136208,284.43653021525137,216.40122357585514,128.44563243119418,35.939033292780564,0.0,0.0,0.0,0.0,0.0,0.0,0.0,0.0,0.0,0.0,0.0,14.895543792544695,74.36016741955538,188.3240374901565,266.9989343016967,323.44894860416167,355.48644617919336,366.8354599143566,358.501055503739,330.60196000594004,210.5495077569476,214.5685950178646,125.5491624075324,41.081325548668715,0.0,0.0,0.0,0.0,0.0,0.0,0.0,0.0,0.0,0.0,0.0,8.925688672753171,50.00701422142189,161.13377779766114,151.6168048627725,232.6562509651388,289.2244045684877,123.30334017530605,113.1363072066978,145.7650890438649,250.09384687869345,220.30275929360408,127.97307522765844,41.84952488327219,0.0,0.0,0.0,0.0,0.0,0.0,0.0,0.0,0.0,0.0,0.0,15.48682805468019,92.21154476506172,188
...